/*--------------------------------*- C++ -*----------------------------------*\
| =========                 |                                                 |
| \\      /  F ield         | foam-extend: Open Source CFD                    |
|  \\    /   O peration     | Version:     4.1                                |
|   \\  /    A nd           | Web:         http://www.foam-extend.org         |
|    \\/     M anipulation  |                                                 |
\*---------------------------------------------------------------------------*/
FoamFile
{
    version     2.0;
    format      ascii;
    class       dictionary;
    location    "constant";
    object      dynamicMeshDict;
}
// * * * * * * * * * * * * * * * * * * * * * * * * * * * * * * * * * * * * * //

dynamicFvMesh   dynamicRefineFvMesh;

dynamicRefineFvMeshCoeffs
{
    refineInterval  1;
    field           eps;
    lowerRefineLevel 0;
    upperRefineLevel 1;
    unrefineLevel   1;
    nBufferLayers   10;
    maxRefinement   2;
    maxCells        2000000;
    correctFluxes
    (
        (
            phi
            U
        )
    );
    dumpLevel       true;
}


// ************************************************************************* //
