/*--------------------------------*- C++ -*----------------------------------*\
| =========                 |                                                 |
| \\      /  F ield         | foam-extend: Open Source CFD                    |
|  \\    /   O peration     | Version:     4.0                                |
|   \\  /    A nd           | Web:         http://www.foam-extend.org         |
|    \\/     M anipulation  |                                                 |
\*---------------------------------------------------------------------------*/
FoamFile
{
    version     2.0;
    format      ascii;
    class       dictionary;
    object      blockMeshDict;
}
// * * * * * * * * * * * * * * * * * * * * * * * * * * * * * * * * * * * * * //

convertToMeters 1;

vertices
(
    (1 1 1)
    (301 1 1)
    (301 301 1)
    (1 301 1)
    (1 1 301)
    (301 1 301)
    (301 301 301)
    (1 301 301)
);

blocks
(
    hex (0 1 2 3 4 5 6 7) (75 75 75) simpleGrading (1 1 1)
);

edges
(
);

boundary
(
  bottom 
    {
        type patch;
        faces
        (
            (1 5 4 0)
        );
    }

    
   top 
    {
        type patch;
        faces
        (
            (3 7 6 2)
        );
    }

   left 
    {
        type patch;
        faces
        (
            (0 4 7 3)
        );
    }

   right 
    {
        type patch;
        faces
        (
            (2 6 5 1)
        );
    }

   front 
    {
        type patch;
        faces
        (
            (0 3 2 1)
        );
    }

   back 
    {
        type patch;
        faces
        (
            (4 5 6 7)
        );
    }
);


// ************************************************************************* //
