/*--------------------------------*- C++ -*----------------------------------*\
| =========                 |                                                 |
| \\      /  F ield         | foam-extend: Open Source CFD                    |
|  \\    /   O peration     | Version:     3.1                                |
|   \\  /    A nd           | Web:         http://www.extend-project.de       |
|    \\/     M anipulation  |                                                 |
\*---------------------------------------------------------------------------*/
FoamFile
{
    version     2.0;
    format      ascii;
    class       dictionary;
    object      blockMeshDict;
}
// * * * * * * * * * * * * * * * * * * * * * * * * * * * * * * * * * * * * * //

convertToMeters 1e-2;

vertices        
(
    (0 0 0) //0
    (0.3 0 0) //1
    (0.3 2.4 0) //2
    (0 2.4 0) //3
    (0 0 0.3) //4
    (0.3 0 0.3) //5 
    (0.3 2.4 0.3) //6
    (0 2.4 0.3) //7

    (1.2 0 0) //8
    (1.2 2.4 0) //9
    (1.2 0 0.3) //10 
    (1.2 2.4 0.3) //11

    (0 0 1.2) //12
    (0.3 0 1.2) //13 
    (0.3 2.4 1.2) //14
    (0 2.4 1.2) //15

    (1.2 0 1.2) //16 
    (1.2 2.4 1.2) //17


);

blocks          
(
    hex (0 1 2 3 4 5 6 7) (30 240 30) simpleGrading (1 1 1)
    hex (1 8 9 2 5 10 11 6) (15 240 30) simpleGrading (18 1 1) 
    hex (4 5 6 7 12 13 14 15) (30 240 15) simpleGrading (1 1 18)  
    hex (5 10 11 6 13 16 17 14) (15 240 15) simpleGrading (18 1 18)  
);

edges           
(
);

boundary
(
    walls
    {
        type patch;
        faces
        (
            (3 7 6 2)
            (8 9 11 10)
            (2 6 11 9)
            (12 13 14 15)
            (13 16 17 14)
            (6 14 17 11)
            (7 15 14 6)
            (0 1 5 4)
            (1 8 10 5)
            (4 5 13 12)
            (5 10 16 13)
            (10 11 17 16)
        );
    }
    right 
    {
		type symmetryPlane;
		faces
		(
	    	(0 4 7 3)
            (4 12 15 7)
		);
    } 

    front
    {
               type symmetryPlane;
               faces
               (
               (0 3 2 1)
               (1 2 9 8)
               );
    }


);

mergePatchPairs
(
);

// ************************************************************************* //
